1

                    Execution started at 20250529.221137         



                    ---------------------------------------
                                     SWAN
                    SIMULATION OF WAVES IN NEAR SHORE AREAS
                             VERSION NUMBER 41.51               
                    ---------------------------------------


    
 $*************************HEADING************************
    
 $
    
 PROJ 'PROJ' '464'
    
 $
    
 $********************MODEL INPUT*************************$
    
 MODE STAT
    
 COORDINATES CARTESIAN
    
 SET level=0   NAUTICAL
    
 $
    
 CGRID REGULAR 287634.73 3676471.67 40 450000 200000 799 399 CIRCLE 24 0.03 0.5
 Number of meshes in sigma-space: MSC-1 =  30
    
 $
    
 INPGRID BOTTOM REGULAR 149145.12296888902 3666554.4198390255 0 1179 1105 418.1894958758494 418.1894958759658
    
 READINP BOTTOM 1 'depth.dat' 1 0 FREE
    
 $
    
 BOUndspec SIDE N CONstant FILE 'input_spectra_N.bnd'
    
 BOUndspec SIDE E CONstant FILE 'input_spectra_E.bnd'
    
 BOUndspec SIDE W CONstant FILE 'input_spectra_W.bnd'
    
 BOUndspec SIDE S CONstant FILE 'input_spectra_S.bnd'
    
 $
    
 FRICTION JONSWAP
    
 BREAKING
    
 $
    
 OFF QUAD
    
 $
    
 POINTS 'LOC' FILE 'locations.loc'
    
 SPECOUT 'LOC' SPEC2D 'output.spec'
    
 BLOCK 'COMPGRID' NOHEAD 'output.mat' LAY 3 XP YP DEPTH HSIGN TM02 DIR PDIR TPS DSPR PTHSIGN PTRTP PTDIR PTDSPR
    
 $
    
 TEST  1,0
    
 COMPUTE
 ** Warning          : Activate wind option Yan (1987) in case of
 ** Warning          : Alves & Banner (2003) white-capping method
 ** Warning          : Limiter is de-activated in case of no quadruplets

----------------------------------------------------------------
                  COMPUTATIONAL PART OF SWAN
----------------------------------------------------------------

 Gridresolution       : MXC             800 MYC            400
                      : MCGRD        320001
                      : MSC              31 MDC             24
                      : MTC               1
                      : NSTATC            0 ITERMX          50
 Propagation flags    : ITFRE             1 IREFR            1
 Source term flags    : IBOT              1 ISURF            1
                      : IWCAP             7 IWIND            0
                      : ITRIAD            0 IQUAD            0
                      : IBRAG             0 IQCM             0
                      : IVEG              0 ITURBV           0
                      : IMUD              0 IICE             0
 Spatial step         : DX       0.5632E+03 DY      0.5013E+03
 Spectral bin         : df/f     0.9832E-01 DDIR    0.1500E+02
 Physical constants   : GRAV     0.9810E+01 RHO     0.1025E+04
 Wind input           : WSPEED   0.0000E+00 DIR     0.0000E+00
                      : ICEWIND  0.00
 Tail parameters      : E(f)     0.4000E+01 E(k)    0.2500E+01
                      : A(f)     0.5000E+01 A(k)    0.3000E+01
 Accuracy parameters  : DREL     0.1000E-01 NPNTS   0.9950E+02
                      : DHABS    0.5000E-02 CURVAT  0.5000E-02
                      : GRWMX    0.1000E+21
 Drying/flooding      : LEVEL    0.0000E+00 DEPMIN  0.5000E-01
 The nautical  convention for wind and wave directions is used
 Scheme for geographic propagation is SORDUP
 Scheme geogr. space  : PROPSC            2 ICMAX            7
 Scheme spectral space: CSS      0.5000E+00 CDD     0.5000E+00
 Current is off
 Quadruplets is off
 Triads is off
 Bragg scattering is off
 QC scattering is off
 Surfbeat (IEM) is off
 JONSWAP (`73)        : GAMMA    0.3800E-01
 Vegetation is off
 Turbulence is off
 Fluid mud is off
 Dissipation by sea ice is off
 W-cap Alves-Banner   : CDS2     0.2360E-04 BR      0.1750E-02
 Battjes&Janssen (`78): ALPHA    0.1000E+01 GAMMA   0.7300E+00
 Set-up is off
 Diffraction is off
 Janssen (`89,`90)    : ALPHA    0.1000E-01 KAPPA   0.4100E+00
 Janssen (`89,`90)    : RHOA     0.1280E+01 RHOW    0.1025E+04

 1st and 2nd gen. wind: CF10     0.1880E+03 CF20    0.5900E+00
                      : CF30     0.1200E+00 CF40    0.2500E+03
                      : CF50     0.2300E-02 CF60   -0.2230E+00
                      : CF70     0.0000E+00 CF80   -0.5600E+00
                      : RHOAW    0.1249E-02 EDMLPM  0.3600E-02
                      : CDRAG    0.1230E-02 UMIN    0.1000E+01
                      : LIM_PM   0.1300E+00

 iteration    1; sweep 1
 iteration    1; sweep 2
 iteration    1; sweep 3
 iteration    1; sweep 4
 not possible to compute, first iteration

 iteration    2; sweep 1
 iteration    2; sweep 2
 iteration    2; sweep 3
 iteration    2; sweep 4
 accuracy OK in   8.04 % of wet grid points ( 99.50 % required)

 iteration    3; sweep 1
 iteration    3; sweep 2
 iteration    3; sweep 3
 iteration    3; sweep 4
 accuracy OK in  41.06 % of wet grid points ( 99.50 % required)

 iteration    4; sweep 1
 iteration    4; sweep 2
 iteration    4; sweep 3
 iteration    4; sweep 4
 accuracy OK in  71.35 % of wet grid points ( 99.50 % required)

 iteration    5; sweep 1
 iteration    5; sweep 2
 iteration    5; sweep 3
 iteration    5; sweep 4
 accuracy OK in  90.27 % of wet grid points ( 99.50 % required)

 iteration    6; sweep 1
 iteration    6; sweep 2
 iteration    6; sweep 3
 iteration    6; sweep 4
 accuracy OK in  99.60 % of wet grid points ( 99.50 % required)

  ** WARNING : Differences in wave height at the boundary
 Relative difference between input and computation >=   0.10
                         Hs[m]      Hs[m]      Hs[-]
     ix    iy  index   (input) (computed) (relative)
  --------------------------------------------------
     1   400    401       0.93       0.00       1.00
     2   400    801       0.93       0.00       1.00
     3   400   1201       0.93       0.00       1.00
     4   400   1601       0.93       0.00       1.00
     5   400   2001       0.93       0.00       1.00
     6   400   2401       0.93       0.00       1.00
     7   400   2801       0.93       0.00       1.00
     8   400   3201       0.93       0.00       1.00
     9   400   3601       0.93       0.00       1.00
    10   400   4001       0.93       0.00       1.00
    11   400   4401       0.93       0.00       1.00
    12   400   4801       0.93       0.00       1.00
    13   400   5201       0.93       0.00       1.00
    14   400   5601       0.93       0.00       1.00
    15   400   6001       0.93       0.00       1.00
    16   400   6401       0.93       0.00       1.00
    17   400   6801       0.93       0.00       1.00
    18   400   7201       0.93       0.00       1.00
    19   400   7601       0.93       0.00       1.00
    20   400   8001       0.93       0.00       1.00
    21   400   8401       0.93       0.00       1.00
    22   400   8801       0.93       0.00       1.00
    23   400   9201       0.93       0.00       1.00
    24   400   9601       0.93       0.00       1.00
    25   400  10001       0.93       0.00       1.00
    26   400  10401       0.93       0.00       1.00
    27   400  10801       0.93       0.00       1.00
    28   400  11201       0.93       0.00       1.00
    29   400  11601       0.93       0.00       1.00
    30   400  12001       0.93       0.00       1.00
    31   400  12401       0.93       0.00       1.00
    32   400  12801       0.93       0.00       1.00
    33   400  13201       0.93       0.00       1.00
    34   400  13601       0.93       0.00       1.00
    35   400  14001       0.93       0.00       1.00
    36   400  14401       0.93       0.00       1.00
    37   400  14801       0.93       0.00       1.00
    38   400  15201       0.93       0.00       1.00
    39   400  15601       0.93       0.00       1.00
    40   400  16001       0.93       0.00       1.00
    41   400  16401       0.93       0.00       1.00
    42   400  16801       0.93       0.00       1.00
    43   400  17201       0.93       0.00       1.00
    44   400  17601       0.93       0.00       1.00
    45   400  18001       0.93       0.00       1.00
    46   400  18401       0.93       0.00       1.00
    47   400  18801       0.93       0.00       1.00
    48   400  19201       0.93       0.00       1.00
    49   400  19601       0.93       0.00       1.00
    50   400  20001       0.93       0.00       1.00
    51   400  20401       0.93       0.00       1.00
    52   400  20801       0.93       0.00       1.00
    53   400  21201       0.93       0.00       1.00
    54   400  21601       0.93       0.00       1.00
    55   400  22001       0.93       0.00       1.00
    56   400  22401       0.93       0.00       1.00
    57   400  22801       0.93       0.00       1.00
    58   400  23201       0.93       0.00       1.00
    59   400  23601       0.93       0.00       1.00
    60   400  24001       0.93       0.00       1.00
    61   400  24401       0.93       0.00       1.00
    62   400  24801       0.93       0.00       1.00
    63   400  25201       0.93       0.00       1.00
    64   400  25601       0.93       0.00       1.00
    65   400  26001       0.93       0.00       1.00
    66   400  26401       0.93       0.00       1.00
    67   400  26801       0.93       0.00       1.00
    68   400  27201       0.93       0.00       1.00
    69   400  27601       0.93       0.00       1.00
    70   400  28001       0.93       0.00       1.00
    71   400  28401       0.93       0.00       1.00
    72   400  28801       0.93       0.00       1.00
    73   400  29201       0.93       0.00       1.00
    74   400  29601       0.93       0.00       1.00
    75   400  30001       0.93       0.00       1.00
    76   400  30401       0.93       0.00       1.00
    77   400  30801       0.93       0.00       1.00
    78   400  31201       0.93       0.00       1.00
    79   400  31601       0.93       0.00       1.00
    80   400  32001       0.93       0.00       1.00
    81   400  32401       0.93       0.00       1.00
    82   400  32801       0.93       0.00       1.00
    83   400  33201       0.93       0.00       1.00
    84   400  33601       0.93       0.00       1.00
    85   400  34001       0.93       0.00       1.00
    86   400  34401       0.93       0.00       1.00
    87   400  34801       0.93       0.00       1.00
    88   400  35201       0.93       0.00       1.00
    89   400  35601       0.93       0.00       1.00
    90   400  36001       0.93       0.00       1.00
    91   400  36401       0.93       0.00       1.00
    92   400  36801       0.93       0.00       1.00
    93   400  37201       0.93       0.00       1.00
    94   400  37601       0.93       0.00       1.00
    95   400  38001       0.93       0.00       1.00
    96   400  38401       0.93       0.00       1.00
    97   400  38801       0.93       0.00       1.00
    98   400  39201       0.93       0.00       1.00
    99   400  39601       0.93       0.00       1.00
   100   400  40001       0.93       0.00       1.00
   101   400  40401       0.93       0.00       1.00
   102   400  40801       0.93       0.00       1.00
   103   400  41201       0.93       0.00       1.00
   104   400  41601       0.93       0.00       1.00
   105   400  42001       0.93       0.00       1.00
   106   400  42401       0.93       0.00       1.00
   107   400  42801       0.93       0.00       1.00
   108   400  43201       0.93       0.00       1.00
   109   400  43601       0.93       0.00       1.00
   110   400  44001       0.93       0.00       1.00
   111   400  44401       0.93       0.00       1.00
   112   400  44801       0.93       0.00       1.00
   113   400  45201       0.93       0.00       1.00
   114   400  45601       0.93       0.00       1.00
   115   400  46001       0.93       0.00       1.00
   116   400  46401       0.93       0.00       1.00
   117   400  46801       0.93       0.00       1.00
   118   400  47201       0.93       0.00       1.00
   119   400  47601       0.93       0.00       1.00
   120   400  48001       0.93       0.00       1.00
   121   400  48401       0.93       0.00       1.00
   122   400  48801       0.93       0.00       1.00
   123   400  49201       0.93       0.00       1.00
   124   400  49601       0.93       0.00       1.00
   125   400  50001       0.93       0.00       1.00
   126   400  50401       0.93       0.00       1.00
   127   400  50801       0.93       0.00       1.00
   128   400  51201       0.93       0.00       1.00
   129   400  51601       0.93       0.00       1.00
   130   400  52001       0.93       0.00       1.00
   131   400  52401       0.93       0.00       1.00
   132   400  52801       0.93       0.00       1.00
   133   400  53201       0.93       0.00       1.00
   134   400  53601       0.93       0.00       1.00
   135   400  54001       0.93       0.00       1.00
   136   400  54401       0.93       0.00       1.00
   137   400  54801       0.93       0.00       1.00
   138   400  55201       0.93       0.00       1.00
   139   400  55601       0.93       0.00       1.00
   140   400  56001       0.93       0.00       1.00
   141   400  56401       0.93       0.00       1.00
   142   400  56801       0.93       0.00       1.00
   143   400  57201       0.93       0.00       1.00
   144   400  57601       0.93       0.00       1.00
   145   400  58001       0.93       0.00       1.00
   146   400  58401       0.93       0.00       1.00
   147   400  58801       0.93       0.00       1.00
   148   400  59201       0.93       0.00       1.00
   149   400  59601       0.93       0.00       1.00
   150   400  60001       0.93       0.00       1.00
   151   400  60401       0.93       0.00       1.00
   152   400  60801       0.93       0.00       1.00
   153   400  61201       0.93       0.00       1.00
   154   400  61601       0.93       0.00       1.00
   155   400  62001       0.93       0.00       1.00
   156   400  62401       0.93       0.00       1.00
   157   400  62801       0.93       0.00       1.00
   158   400  63201       0.93       0.00       1.00
   159   400  63601       0.93       0.00       1.00
   160   400  64001       0.93       0.00       1.00
   161   400  64401       0.93       0.00       1.00
   162   400  64801       0.93       0.00       1.00
   163   400  65201       0.93       0.00       1.00
   164   400  65601       0.93       0.00       1.00
   165   400  66001       0.93       0.00       1.00
   166   400  66401       0.93       0.00       1.00
   167   400  66801       0.93       0.00       1.00
   168   400  67201       0.93       0.00       1.00
   169   400  67601       0.93       0.00       1.00
   170   400  68001       0.93       0.00       1.00
   171   400  68401       0.93       0.00       1.00
   172   400  68801       0.93       0.00       1.00
   173   400  69201       0.93       0.00       1.00
   174   400  69601       0.93       0.00       1.00
   175   400  70001       0.93       0.00       1.00
   176   400  70401       0.93       0.00       1.00
   177   400  70801       0.93       0.00       1.00
   178   400  71201       0.93       0.00       1.00
   179   400  71601       0.93       0.00       1.00
   180   400  72001       0.93       0.00       1.00
   181   400  72401       0.93       0.00       1.00
   182   400  72801       0.93       0.00       1.00
   183   400  73201       0.93       0.00       1.00
   184   400  73601       0.93       0.00       1.00
   185   400  74001       0.93       0.00       1.00
   186   400  74401       0.93       0.00       1.00
   187   400  74801       0.93       0.00       1.00
   188   400  75201       0.93       0.00       1.00
   189   400  75601       0.93       0.00       1.00
   190   400  76001       0.93       0.00       1.00
   191   400  76401       0.93       0.00       1.00
   192   400  76801       0.93       0.00       1.00
   193   400  77201       0.93       0.00       1.00
   194   400  77601       0.93       0.00       1.00
   195   400  78001       0.93       0.00       1.00
   196   400  78401       0.93       0.00       1.00
   197   400  78801       0.93       0.00       1.00
   198   400  79201       0.93       0.00       1.00
   199   400  79601       0.93       0.00       1.00
   200   400  80001       0.93       0.00       1.00
   201   400  80401       0.93       0.00       1.00
   202   400  80801       0.93       0.00       1.00
   203   400  81201       0.93       0.00       1.00
   204   400  81601       0.93       0.00       1.00
   205   400  82001       0.93       0.00       1.00
   206   400  82401       0.93       0.00       1.00
   207   400  82801       0.93       0.00       1.00
   208   400  83201       0.93       0.00       1.00
   209   400  83601       0.93       0.00       1.00
   210   400  84001       0.93       0.00       1.00
   211   400  84401       0.93       0.00       1.00
   212   400  84801       0.93       0.00       1.00
   213   400  85201       0.93       0.00       1.00
   214   400  85601       0.93       0.00       1.00
   215   400  86001       0.93       0.00       1.00
   216   400  86401       0.93       0.00       1.00
   217   400  86801       0.93       0.00       1.00
   218   400  87201       0.93       0.00       1.00
   219   400  87601       0.93       0.00       1.00
   220   400  88001       0.93       0.00       1.00
   221   400  88401       0.93       0.00       1.00
   222   400  88801       0.93       0.00       1.00
   223   400  89201       0.93       0.00       1.00
   224   400  89601       0.93       0.00       1.00
   225   400  90001       0.93       0.00       1.00
   226   400  90401       0.93       0.00       1.00
   227   400  90801       0.93       0.00       1.00
   228   400  91201       0.93       0.00       1.00
   229   400  91601       0.93       0.00       1.00
   230   400  92001       0.93       0.00       1.00
   231   400  92401       0.93       0.00       1.00
   232   400  92801       0.93       0.00       1.00
   233   400  93201       0.93       0.00       1.00
   234   400  93601       0.93       0.00       1.00
   235   400  94001       0.93       0.00       1.00
   236   400  94401       0.93       0.00       1.00
   237   400  94801       0.93       0.00       1.00
   238   400  95201       0.93       0.00       1.00
   239   400  95601       0.93       0.00       1.00
   240   400  96001       0.93       0.00       1.00
   241   400  96401       0.93       0.00       1.00
   242   400  96801       0.93       0.00       1.00
   243   400  97201       0.93       0.00       1.00
   244   400  97601       0.93       0.00       1.00
   245   400  98001       0.93       0.00       1.00
   246   400  98401       0.93       0.00       1.00
   247   400  98801       0.93       0.00       1.00
   248   400  99201       0.93       0.00       1.00
   249   400  99601       0.93       0.00       1.00
   250   400 100001       0.93       0.00       1.00
   251   400 100401       0.93       0.00       1.00
   252   400 100801       0.93       0.00       1.00
   253   400 101201       0.93       0.00       1.00
   254   400 101601       0.93       0.00       1.00
   255   400 102001       0.93       0.00       1.00
   256   400 102401       0.93       0.00       1.00
   257   400 102801       0.93       0.00       1.00
   258   400 103201       0.93       0.00       1.00
   259   400 103601       0.93       0.00       1.00
   260   400 104001       0.93       0.00       1.00
   261   400 104401       0.93       0.00       1.00
   262   400 104801       0.93       0.00       1.00
   263   400 105201       0.93       0.00       1.00
   264   400 105601       0.93       0.00       1.00
   265   400 106001       0.93       0.00       1.00
   266   400 106401       0.93       0.00       1.00
   267   400 106801       0.93       0.00       1.00
   268   400 107201       0.93       0.00       1.00
   269   400 107601       0.93       0.00       1.00
   270   400 108001       0.93       0.00       1.00
   271   400 108401       0.93       0.00       1.00
   272   400 108801       0.93       0.00       1.00
   273   400 109201       0.93       0.00       1.00
   274   400 109601       0.93       0.00       1.00
   275   400 110001       0.93       0.00       1.00
   276   400 110401       0.93       0.00       1.00
   277   400 110801       0.93       0.00       1.00
   278   400 111201       0.93       0.00       1.00
   279   400 111601       0.93       0.00       1.00
   280   400 112001       0.93       0.00       1.00
   281   400 112401       0.93       0.00       1.00
   282   400 112801       0.93       0.00       1.00
   283   400 113201       0.93       0.00       1.00
   284   400 113601       0.93       0.00       1.00
   285   400 114001       0.93       0.00       1.00
   286   400 114401       0.93       0.00       1.00
   287   400 114801       0.93       0.00       1.00
   288   400 115201       0.93       0.00       1.00
   289   400 115601       0.93       0.00       1.00
   290   400 116001       0.93       0.00       1.00
   291   400 116401       0.93       0.00       1.00
   292   400 116801       0.93       0.00       1.00
   293   400 117201       0.93       0.00       1.00
   294   400 117601       0.93       0.00       1.00
   295   400 118001       0.93       0.00       1.00
   296   400 118401       0.93       0.00       1.00
   297   400 118801       0.93       0.00       1.00
   298   400 119201       0.93       0.00       1.00
   299   400 119601       0.93       0.00       1.00
   300   400 120001       0.93       0.00       1.00
   301   400 120401       0.93       0.00       1.00
   302   400 120801       0.93       0.00       1.00
   303   400 121201       0.93       0.00       1.00
   304   400 121601       0.93       0.00       1.00
   305   400 122001       0.93       0.00       1.00
   306   400 122401       0.93       0.00       1.00
   307   400 122801       0.93       0.00       1.00
   308   400 123201       0.93       0.00       1.00
   309   400 123601       0.93       0.00       1.00
   310   400 124001       0.93       0.00       1.00
   311   400 124401       0.93       0.00       1.00
   312   400 124801       0.93       0.00       1.00
   313   400 125201       0.93       0.00       1.00
   314   400 125601       0.93       0.00       1.00
   315   400 126001       0.93       0.00       1.00
   316   400 126401       0.93       0.00       1.00
   317   400 126801       0.93       0.00       1.00
   318   400 127201       0.93       0.00       1.00
   319   400 127601       0.93       0.00       1.00
   320   400 128001       0.93       0.00       1.00
   321   400 128401       0.93       0.00       1.00
   322   400 128801       0.93       0.00       1.00
   323   400 129201       0.93       0.00       1.00
   324   400 129601       0.93       0.00       1.00
   325   400 130001       0.93       0.00       1.00
   326   400 130401       0.93       0.00       1.00
   327   400 130801       0.93       0.00       1.00
   328   400 131201       0.93       0.00       1.00
   329   400 131601       0.93       0.00       1.00
   330   400 132001       0.93       0.00       1.00
   331   400 132401       0.93       0.00       1.00
   332   400 132801       0.93       0.00       1.00
   333   400 133201       0.93       0.00       1.00
   334   400 133601       0.93       0.00       1.00
   335   400 134001       0.93       0.00       1.00
   336   400 134401       0.93       0.00       1.00
   337   400 134801       0.93       0.00       1.00
   338   400 135201       0.93       0.00       1.00
   339   400 135601       0.93       0.00       1.00
   340   400 136001       0.93       0.00       1.00
   341   400 136401       0.93       0.00       1.00
   342   400 136801       0.93       0.00       1.00
   343   400 137201       0.93       0.00       1.00
   344   400 137601       0.93       0.00       1.00
   345   400 138001       0.93       0.00       1.00
   346   400 138401       0.93       0.00       1.00
   347   400 138801       0.93       0.00       1.00
   348   400 139201       0.93       0.00       1.00
   349   400 139601       0.93       0.00       1.00
   350   400 140001       0.93       0.00       1.00
   351   400 140401       0.93       0.00       1.00
   352   400 140801       0.93       0.00       1.00
   353   400 141201       0.93       0.00       1.00
   354   400 141601       0.93       0.00       1.00
   355   400 142001       0.93       0.00       1.00
   356   400 142401       0.93       0.00       1.00
   357   400 142801       0.93       0.00       1.00
   358   400 143201       0.93       0.00       1.00
   359   400 143601       0.93       0.00       1.00
   360   400 144001       0.93       0.00       1.00
   361   400 144401       0.93       0.00       1.00
   362   400 144801       0.93       0.00       1.00
   363   400 145201       0.93       0.00       1.00
   364   400 145601       0.93       0.00       1.00
   365   400 146001       0.93       0.00       1.00
   366   400 146401       0.93       0.00       1.00
   367   400 146801       0.93       0.00       1.00
   368   400 147201       0.93       0.00       1.00
   369   400 147601       0.93       0.00       1.00
   370   400 148001       0.93       0.00       1.00
   371   400 148401       0.93       0.00       1.00
   372   400 148801       0.93       0.00       1.00
   373   400 149201       0.93       0.00       1.00
   374   400 149601       0.93       0.00       1.00
   375   400 150001       0.93       0.00       1.00
   376   400 150401       0.93       0.00       1.00
   377   400 150801       0.93       0.00       1.00
   378   400 151201       0.93       0.00       1.00
   379   400 151601       0.93       0.00       1.00
   380   400 152001       0.93       0.00       1.00
   381   400 152401       0.93       0.00       1.00
   382   400 152801       0.93       0.00       1.00
   383   400 153201       0.93       0.00       1.00
   384   400 153601       0.93       0.00       1.00
   385   400 154001       0.93       0.00       1.00
   386   400 154401       0.93       0.00       1.00
   387   400 154801       0.93       0.00       1.00
   388   400 155201       0.93       0.00       1.00
   389   400 155601       0.93       0.00       1.00
   390   400 156001       0.93       0.00       1.00
   391   400 156401       0.93       0.00       1.00
   392   400 156801       0.93       0.00       1.00
   393   400 157201       0.93       0.00       1.00
   394   400 157601       0.93       0.00       1.00
   395   400 158001       0.93       0.00       1.00
   396   400 158401       0.93       0.00       1.00
   397   400 158801       0.93       0.00       1.00
   398   400 159201       0.93       0.00       1.00
   399   400 159601       0.93       0.00       1.00
   400   400 160001       0.93       0.00       1.00
   401   400 160401       0.93       0.00       1.00
   402   400 160801       0.93       0.00       1.00
   403   400 161201       0.93       0.00       1.00
   404   400 161601       0.93       0.00       1.00
   405   400 162001       0.93       0.00       1.00
   406   400 162401       0.93       0.00       1.00
   407   400 162801       0.93       0.00       1.00
   408   400 163201       0.93       0.00       1.00
   409   400 163601       0.93       0.00       1.00
   410   400 164001       0.93       0.00       1.00
   411   400 164401       0.93       0.00       1.00
   412   400 164801       0.93       0.00       1.00
   413   400 165201       0.93       0.00       1.00
   414   400 165601       0.93       0.00       1.00
   415   400 166001       0.93       0.00       1.00
   416   400 166401       0.93       0.00       1.00
   417   400 166801       0.93       0.00       1.00
   418   400 167201       0.93       0.00       1.00
   419   400 167601       0.93       0.00       1.00
   420   400 168001       0.93       0.00       1.00
   421   400 168401       0.93       0.00       1.00
   422   400 168801       0.93       0.00       1.00
   423   400 169201       0.93       0.00       1.00
   424   400 169601       0.93       0.00       1.00
   425   400 170001       0.93       0.00       1.00
   426   400 170401       0.93       0.00       1.00
   427   400 170801       0.93       0.00       1.00
   428   400 171201       0.93       0.00       1.00
   429   400 171601       0.93       0.00       1.00
   430   400 172001       0.93       0.00       1.00
   431   400 172401       0.93       0.00       1.00
   432   400 172801       0.93       0.00       1.00
   433   400 173201       0.93       0.00       1.00
   434   400 173601       0.93       0.00       1.00
   435   400 174001       0.93       0.00       1.00
   444   400 177601       0.93       0.00       1.00
   445   400 178001       0.93       0.00       1.00
   446   400 178401       0.93       0.00       1.00
   447   400 178801       0.93       0.00       1.00
   448   400 179201       0.93       0.00       1.00
   449   400 179601       0.93       0.00       1.00
   450   400 180001       0.93       0.00       1.00
   451   400 180401       0.93       0.00       1.00
   452   400 180801       0.93       0.00       1.00
   453   400 181201       0.93       0.00       1.00
   454   400 181601       0.93       0.00       1.00
   455   400 182001       0.93       0.00       1.00
   456   400 182401       0.93       0.00       1.00
   457   400 182801       0.93       0.00       1.00
   458   400 183201       0.93       0.00       1.00
   459   400 183601       0.93       0.00       1.00
   460   400 184001       0.93       0.00       1.00
   461   400 184401       0.93       0.00       1.00
   462   400 184801       0.93       0.00       1.00
   463   400 185201       0.93       0.00       1.00
   464   400 185601       0.93       0.00       1.00
   465   400 186001       0.93       0.00       1.00
   466   400 186401       0.93       0.00       1.00
   467   400 186801       0.93       0.00       1.00
   468   400 187201       0.93       0.00       1.00
   469   400 187601       0.93       0.00       1.00
   470   400 188001       0.93       0.00       1.00
   471   400 188401       0.93       0.00       1.00
   472   400 188801       0.93       0.00       1.00
   473   400 189201       0.93       0.00       1.00
   474   400 189601       0.93       0.00       1.00
   475   400 190001       0.93       0.00       1.00
   476   400 190401       0.93       0.00       1.00
   477   400 190801       0.93       0.00       1.00
   478   400 191201       0.93       0.00       1.00
   479   400 191601       0.93       0.00       1.00
   480   400 192001       0.93       0.00       1.00
   481   400 192401       0.93       0.00       1.00
   482   400 192801       0.93       0.00       1.00
   483   400 193201       0.93       0.00       1.00
   484   400 193601       0.93       0.00       1.00
   485   400 194001       0.93       0.00       1.00
   486   400 194401       0.93       0.00       1.00
   487   400 194801       0.93       0.00       1.00
   488   400 195201       0.93       0.00       1.00
   489   400 195601       0.93       0.00       1.00
   490   400 196001       0.93       0.00       1.00
   491   400 196401       0.93       0.00       1.00
   492   400 196801       0.93       0.00       1.00
   493   400 197201       0.93       0.00       1.00
   494   400 197601       0.93       0.00       1.00
   495   400 198001       0.93       0.00       1.00
   496   400 198401       0.93       0.00       1.00
   497   400 198801       0.93       0.00       1.00
   498   400 199201       0.93       0.00       1.00
   499   400 199601       0.93       0.00       1.00
   500   400 200001       0.93       0.00       1.00
   501   400 200401       0.93       0.00       1.00
   502   400 200801       0.93       0.00       1.00
   503   400 201201       0.93       0.00       1.00
   504   400 201601       0.93       0.00       1.00
   505   400 202001       0.93       0.00       1.00
   506   400 202401       0.93       0.00       1.00
   507   400 202801       0.93       0.00       1.00
   508   400 203201       0.93       0.00       1.00
   509   400 203601       0.93       0.00       1.00
   510   400 204001       0.93       0.00       1.00
   511   400 204401       0.93       0.00       1.00
   512   400 204801       0.93       0.00       1.00
   513   400 205201       0.93       0.00       1.00
   514   400 205601       0.93       0.00       1.00
   515   400 206001       0.93       0.00       1.00
   516   400 206401       0.93       0.00       1.00
   517   400 206801       0.93       0.00       1.00
   518   400 207201       0.93       0.00       1.00
   519   400 207601       0.93       0.00       1.00
   520   400 208001       0.93       0.00       1.00
   521   400 208401       0.93       0.00       1.00
   522   400 208801       0.93       0.00       1.00
   523   400 209201       0.93       0.00       1.00
   524   400 209601       0.93       0.00       1.00
   525   400 210001       0.93       0.00       1.00
   526   400 210401       0.93       0.00       1.00
   527   400 210801       0.93       0.00       1.00
   528   400 211201       0.93       0.00       1.00
   529   400 211601       0.93       0.00       1.00
   530   400 212001       0.93       0.00       1.00
   531   400 212401       0.93       0.00       1.00
   532   400 212801       0.93       0.00       1.00
   533   400 213201       0.93       0.00       1.00
   534   400 213601       0.93       0.00       1.00
   535   400 214001       0.93       0.00       1.00
   536   400 214401       0.93       0.00       1.00
   537   400 214801       0.93       0.00       1.00
   538   400 215201       0.93       0.00       1.00
   539   400 215601       0.93       0.00       1.00
   540   400 216001       0.93       0.00       1.00
   541   400 216401       0.93       0.00       1.00
   542   400 216801       0.93       0.00       1.00
   543   400 217201       0.93       0.00       1.00
   544   400 217601       0.93       0.00       1.00
   545   400 218001       0.93       0.00       1.00
   546   400 218401       0.93       0.00       1.00
   547   400 218801       0.93       0.00       1.00
   548   400 219201       0.93       0.00       1.00
   549   400 219601       0.93       0.00       1.00
   550   400 220001       0.93       0.00       1.00
   551   400 220401       0.93       0.00       1.00
   552   400 220801       0.93       0.00       1.00
   553   400 221201       0.93       0.00       1.00
   554   400 221601       0.93       0.00       1.00
   555   400 222001       0.93       0.00       1.00
   556   400 222401       0.93       0.00       1.00
   557   400 222801       0.93       0.00       1.00
   558   400 223201       0.93       0.00       1.00
   559   400 223601       0.93       0.00       1.00
   560   400 224001       0.93       0.00       1.00
   561   400 224401       0.93       0.00       1.00
   562   400 224801       0.93       0.00       1.00
   563   400 225201       0.93       0.00       1.00
   564   400 225601       0.93       0.00       1.00
   565   400 226001       0.93       0.00       1.00
   566   400 226401       0.93       0.00       1.00
   567   400 226801       0.93       0.00       1.00
   568   400 227201       0.93       0.00       1.00
   569   400 227601       0.93       0.00       1.00
   570   400 228001       0.93       0.00       1.00
   571   400 228401       0.93       0.00       1.00
   572   400 228801       0.93       0.00       1.00
   573   400 229201       0.93       0.00       1.00
   574   400 229601       0.93       0.00       1.00
   575   400 230001       0.93       0.00       1.00
   576   400 230401       0.93       0.00       1.00
   577   400 230801       0.93       0.00       1.00
   590   400 236001       0.93       0.00       1.00
   591   400 236401       0.93       0.00       1.00
   592   400 236801       0.93       0.00       1.00
   593   400 237201       0.93       0.00       1.00
   594   400 237601       0.93       0.00       1.00
   595   400 238001       0.93       0.00       1.00
   596   400 238401       0.93       0.00       1.00
   597   400 238801       0.93       0.00       1.00
   598   400 239201       0.93       0.00       1.00
   599   400 239601       0.93       0.00       1.00
   600   400 240001       0.93       0.00       1.00
   606   400 242401       0.93       0.36       0.61
   607   400 242801       0.93       0.00       1.00
   608   400 243201       0.93       0.00       1.00
   609   400 243601       0.93       0.00       1.00
   798   400 319201       0.93       1.03       0.10
   799   400 319601       0.93       1.03       0.10
   800   400 320001       0.93       1.03       0.11
     1   399    400       0.93       0.00       1.00
     1   398    399       0.93       0.00       1.00
     1   397    398       0.93       0.00       1.00
     1   396    397       0.93       0.00       1.00
     1   395    396       0.93       0.00       1.00
     1   394    395       0.93       0.00       1.00
     1   393    394       0.93       0.00       1.00
     1   392    393       0.93       0.00       1.00
     1   391    392       0.93       0.00       1.00
     1   390    391       0.93       0.00       1.00
     1   389    390       0.93       0.00       1.00
     1   388    389       0.93       0.00       1.00
   800   388 319989       0.93       0.81       0.13
     1   387    388       0.93       0.00       1.00
   800   387 319988       0.93       0.78       0.16
     1   386    387       0.93       0.00       1.00
   800   386 319987       0.93       0.76       0.18
     1   385    386       0.93       0.00       1.00
   800   385 319986       0.93       0.75       0.19
     1   384    385       0.93       0.00       1.00
   800   384 319985       0.93       0.75       0.20
     1   383    384       0.93       0.00       1.00
   800   383 319984       0.93       0.75       0.20
     1   382    383       0.93       0.00       1.00
   800   382 319983       0.93       0.74       0.20
     1   381    382       0.93       0.00       1.00
   800   381 319982       0.93       0.74       0.21
     1   380    381       0.93       0.00       1.00
   800   380 319981       0.93       0.73       0.22
     1   379    380       0.93       0.00       1.00
   800   379 319980       0.93       0.72       0.23
     1   378    379       0.93       0.00       1.00
   800   378 319979       0.93       0.71       0.24
     1   377    378       0.93       0.00       1.00
   800   377 319978       0.93       0.69       0.26
     1   376    377       0.93       0.00       1.00
   800   376 319977       0.93       0.67       0.28
     1   375    376       0.93       0.00       1.00
   800   375 319976       0.93       0.65       0.30
     1   374    375       0.93       0.00       1.00
   800   374 319975       0.93       0.62       0.33
     1   373    374       0.93       0.00       1.00
   800   373 319974       0.93       0.59       0.36
     1   372    373       0.93       0.00       1.00
   800   372 319973       0.93       0.55       0.41
     1   371    372       0.93       0.00       1.00
   800   371 319972       0.93       0.51       0.45
     1   370    371       0.93       0.00       1.00
   800   370 319971       0.93       0.47       0.50
     1   369    370       0.93       0.00       1.00
   800   369 319970       0.93       0.44       0.53
     1   368    369       0.93       0.00       1.00
   800   368 319969       0.93       0.41       0.56
     1   367    368       0.93       0.00       1.00
   800   367 319968       0.93       0.39       0.58
     1   366    367       0.93       0.00       1.00
   800   366 319967       0.93       0.38       0.60
     1   365    366       0.93       0.00       1.00
   800   365 319966       0.93       0.38       0.59
     1   364    365       0.93       0.00       1.00
   800   364 319965       0.93       0.39       0.58
     1   363    364       0.93       0.00       1.00
   800   363 319964       0.93       0.42       0.55
     1   362    363       0.93       0.00       1.00
   800   362 319963       0.93       0.43       0.53
     1   361    362       0.93       0.00       1.00
   800   361 319962       0.93       0.44       0.53
     1   360    361       0.93       0.00       1.00
   800   360 319961       0.93       0.43       0.54
     1   359    360       0.93       0.00       1.00
   800   359 319960       0.93       0.41       0.55
     1   358    359       0.93       0.00       1.00
   800   358 319959       0.93       0.39       0.58
     1   357    358       0.93       0.00       1.00
   800   357 319958       0.93       0.34       0.63
     1   356    357       0.93       0.00       1.00
   800   356 319957       0.93       0.29       0.68
     1   355    356       0.93       0.00       1.00
   800   355 319956       0.93       0.24       0.74
     1   354    355       0.93       0.00       1.00
   800   354 319955       0.93       0.20       0.78
     1   353    354       0.93       0.00       1.00
   800   353 319954       0.93       0.18       0.81
     1   352    353       0.93       0.00       1.00
   800   352 319953       0.93       0.17       0.82
     1   351    352       0.93       0.00       1.00
   800   351 319952       0.93       0.17       0.82
     1   350    351       0.93       0.00       1.00
   800   350 319951       0.93       0.17       0.82
     1   349    350       0.93       0.00       1.00
   800   349 319950       0.93       0.18       0.81
     1   348    349       0.93       0.00       1.00
   800   348 319949       0.93       0.20       0.79
     1   347    348       0.93       0.00       1.00
   800   347 319948       0.93       0.22       0.77
     1   346    347       0.93       0.00       1.00
   800   346 319947       0.93       0.23       0.75
     1   345    346       0.93       0.00       1.00
   800   345 319946       0.93       0.24       0.74
     1   344    345       0.93       0.00       1.00
   800   344 319945       0.93       0.24       0.74
     1   343    344       0.93       0.00       1.00
   800   343 319944       0.93       0.24       0.74
     1   342    343       0.93       0.00       1.00
   800   342 319943       0.93       0.24       0.74
     1   341    342       0.93       0.00       1.00
   800   341 319942       0.93       0.23       0.75
     1   340    341       0.93       0.00       1.00
   800   340 319941       0.93       0.23       0.75
     1   339    340       0.93       0.00       1.00
   800   339 319940       0.93       0.23       0.75
     1   338    339       0.93       0.00       1.00
   800   338 319939       0.93       0.23       0.75
     1   337    338       0.93       0.00       1.00
   800   337 319938       0.93       0.23       0.75
     1   336    337       0.93       0.00       1.00
   800   336 319937       0.93       0.23       0.75
     1   335    336       0.93       0.00       1.00
   800   335 319936       0.93       0.23       0.75
     1   334    335       0.93       0.00       1.00
   800   334 319935       0.93       0.24       0.75
     1   333    334       0.93       0.00       1.00
   800   333 319934       0.93       0.24       0.75
     1   332    333       0.93       0.00       1.00
   800   332 319933       0.93       0.24       0.74
     1   331    332       0.93       0.00       1.00
   800   331 319932       0.93       0.24       0.74
     1   330    331       0.93       0.00       1.00
   800   330 319931       0.93       0.24       0.74
     1   329    330       0.93       0.00       1.00
   800   329 319930       0.93       0.25       0.73
     1   328    329       0.93       0.00       1.00
   800   328 319929       0.93       0.25       0.73
     1   327    328       0.93       0.00       1.00
   800   327 319928       0.93       0.26       0.72
     1   326    327       0.93       0.00       1.00
   800   326 319927       0.93       0.27       0.71
     1   325    326       0.93       0.00       1.00
   800   325 319926       0.93       0.28       0.69
     1   324    325       0.93       0.00       1.00
   800   324 319925       0.93       0.29       0.69
     1   323    324       0.93       0.00       1.00
   800   323 319924       0.93       0.30       0.68
     1   322    323       0.93       0.00       1.00
   800   322 319923       0.93       0.30       0.68
     1   321    322       0.93       0.00       1.00
   800   321 319922       0.93       0.30       0.68
     1   320    321       0.93       0.00       1.00
   800   320 319921       0.93       0.29       0.68
     1   319    320       0.93       0.00       1.00
   800   319 319920       0.93       0.29       0.69
     1   318    319       0.93       0.00       1.00
   800   318 319919       0.93       0.28       0.69
     1   317    318       0.93       0.00       1.00
   800   317 319918       0.93       0.28       0.70
     1   316    317       0.93       0.00       1.00
   800   316 319917       0.93       0.28       0.70
     1   315    316       0.93       0.00       1.00
   800   315 319916       0.93       0.27       0.71
     1   314    315       0.93       0.00       1.00
   800   314 319915       0.93       0.27       0.71
     1   313    314       0.93       0.00       1.00
   800   313 319914       0.93       0.27       0.71
     1   312    313       0.93       0.00       1.00
   800   312 319913       0.93       0.27       0.71
     1   311    312       0.93       0.00       1.00
   800   311 319912       0.93       0.26       0.72
     1   310    311       0.93       0.00       1.00
   800   310 319911       0.93       0.26       0.72
     1   309    310       0.93       0.00       1.00
   800   309 319910       0.93       0.27       0.71
     1   308    309       0.93       0.00       1.00
   800   308 319909       0.93       0.28       0.70
     1   307    308       0.93       0.00       1.00
   800   307 319908       0.93       0.28       0.70
     1   306    307       0.93       0.00       1.00
   800   306 319907       0.93       0.28       0.70
     1   305    306       0.93       0.00       1.00
   800   305 319906       0.93       0.28       0.70
     1   304    305       0.93       0.00       1.00
   800   304 319905       0.93       0.28       0.70
     1   303    304       0.93       0.00       1.00
   800   303 319904       0.93       0.27       0.71
     1   302    303       0.93       0.00       1.00
   800   302 319903       0.93       0.27       0.71
     1   301    302       0.93       0.00       1.00
   800   301 319902       0.93       0.26       0.72
     1   300    301       0.93       0.00       1.00
   800   300 319901       0.93       0.26       0.72
     1   299    300       0.93       0.00       1.00
   800   299 319900       0.93       0.25       0.73
     1   298    299       0.93       0.00       1.00
   800   298 319899       0.93       0.25       0.73
     1   297    298       0.93       0.00       1.00
   800   297 319898       0.93       0.25       0.73
     1   296    297       0.93       0.00       1.00
   800   296 319897       0.93       0.25       0.73
     1   295    296       0.93       0.00       1.00
   800   295 319896       0.93       0.25       0.73
     1   294    295       0.93       0.00       1.00
   800   294 319895       0.93       0.25       0.73
     1   293    294       0.93       0.00       1.00
   800   293 319894       0.93       0.25       0.73
     1   292    293       0.93       0.00       1.00
   800   292 319893       0.93       0.24       0.74
     1   291    292       0.93       0.00       1.00
   800   291 319892       0.93       0.24       0.75
     1   290    291       0.93       0.00       1.00
   800   290 319891       0.93       0.23       0.75
     1   289    290       0.93       0.00       1.00
   800   289 319890       0.93       0.23       0.75
     1   288    289       0.93       0.00       1.00
   800   288 319889       0.93       0.23       0.76
     1   287    288       0.93       0.00       1.00
   800   287 319888       0.93       0.22       0.76
     1   286    287       0.93       0.00       1.00
   800   286 319887       0.93       0.22       0.76
     1   285    286       0.93       0.00       1.00
   800   285 319886       0.93       0.22       0.77
     1   284    285       0.93       0.00       1.00
   800   284 319885       0.93       0.21       0.77
     1   283    284       0.93       0.00       1.00
   800   283 319884       0.93       0.21       0.77
     1   282    283       0.93       0.00       1.00
   800   282 319883       0.93       0.21       0.78
     1   281    282       0.93       0.00       1.00
   800   281 319882       0.93       0.21       0.78
     1   280    281       0.93       0.00       1.00
   800   280 319881       0.93       0.20       0.78
     1   279    280       0.93       0.00       1.00
   800   279 319880       0.93       0.20       0.79
     1   278    279       0.93       0.00       1.00
   800   278 319879       0.93       0.20       0.79
     1   277    278       0.93       0.00       1.00
   800   277 319878       0.93       0.19       0.79
     1   276    277       0.93       0.00       1.00
   800   276 319877       0.93       0.19       0.80
     1   275    276       0.93       0.00       1.00
   800   275 319876       0.93       0.19       0.80
     1   274    275       0.93       0.00       1.00
   800   274 319875       0.93       0.19       0.80
     1   273    274       0.93       0.00       1.00
   800   273 319874       0.93       0.19       0.80
     1   272    273       0.93       0.00       1.00
   800   272 319873       0.93       0.19       0.80
     1   271    272       0.93       0.00       1.00
   800   271 319872       0.93       0.19       0.79
     1   270    271       0.93       0.00       1.00
   800   270 319871       0.93       0.19       0.79
     1   269    270       0.93       0.00       1.00
   800   269 319870       0.93       0.20       0.79
     1   268    269       0.93       0.00       1.00
   800   268 319869       0.93       0.20       0.78
     1   267    268       0.93       0.00       1.00
   800   267 319868       0.93       0.20       0.78
     1   266    267       0.93       0.00       1.00
   800   266 319867       0.93       0.21       0.78
     1   265    266       0.93       0.00       1.00
   800   265 319866       0.93       0.21       0.77
     1   264    265       0.93       0.00       1.00
   800   264 319865       0.93       0.21       0.77
     1   263    264       0.93       0.00       1.00
   800   263 319864       0.93       0.21       0.77
     1   262    263       0.93       0.00       1.00
   800   262 319863       0.93       0.21       0.77
     1   261    262       0.93       0.00       1.00
   800   261 319862       0.93       0.21       0.77
     1   260    261       0.93       0.00       1.00
   800   260 319861       0.93       0.21       0.77
     1   259    260       0.93       0.00       1.00
   800   259 319860       0.93       0.21       0.77
     1   258    259       0.93       0.00       1.00
   800   258 319859       0.93       0.21       0.77
     1   257    258       0.93       0.00       1.00
   800   257 319858       0.93       0.21       0.78
     1   256    257       0.93       0.00       1.00
   800   256 319857       0.93       0.21       0.78
     1   255    256       0.93       0.00       1.00
   800   255 319856       0.93       0.21       0.78
     1   254    255       0.93       0.00       1.00
   800   254 319855       0.93       0.21       0.78
     1   253    254       0.93       0.00       1.00
   800   253 319854       0.93       0.21       0.78
     1   252    253       0.93       0.00       1.00
   800   252 319853       0.93       0.20       0.78
     1   251    252       0.93       0.00       1.00
   800   251 319852       0.93       0.20       0.78
     1   250    251       0.93       0.00       1.00
   800   250 319851       0.93       0.20       0.78
     1   249    250       0.93       0.00       1.00
   800   249 319850       0.93       0.20       0.78
     1   248    249       0.93       0.00       1.00
   800   248 319849       0.93       0.20       0.78
     1   247    248       0.93       0.00       1.00
   800   247 319848       0.93       0.20       0.79
     1   246    247       0.93       0.00       1.00
   800   246 319847       0.93       0.20       0.79
     1   245    246       0.93       0.00       1.00
   800   245 319846       0.93       0.19       0.79
     1   244    245       0.93       0.00       1.00
   800   244 319845       0.93       0.19       0.79
     1   243    244       0.93       0.00       1.00
   800   243 319844       0.93       0.19       0.80
     1   242    243       0.93       0.00       1.00
   800   242 319843       0.93       0.19       0.80
     1   241    242       0.93       0.00       1.00
   800   241 319842       0.93       0.19       0.80
     1   240    241       0.93       0.00       1.00
   800   240 319841       0.93       0.18       0.80
     1   239    240       0.93       0.00       1.00
   800   239 319840       0.93       0.18       0.80
     1   238    239       0.93       0.00       1.00
   800   238 319839       0.93       0.18       0.81
     1   237    238       0.93       0.00       1.00
   800   237 319838       0.93       0.18       0.81
     1   236    237       0.93       0.00       1.00
   800   236 319837       0.93       0.18       0.81
     1   235    236       0.93       0.00       1.00
   800   235 319836       0.93       0.18       0.81
     1   234    235       0.93       0.00       1.00
   800   234 319835       0.93       0.18       0.81
     1   233    234       0.93       0.00       1.00
   800   233 319834       0.93       0.17       0.81
     1   232    233       0.93       0.00       1.00
   800   232 319833       0.93       0.17       0.81
     1   231    232       0.93       0.00       1.00
   800   231 319832       0.93       0.17       0.81
     1   230    231       0.93       0.00       1.00
   800   230 319831       0.93       0.17       0.82
     1   229    230       0.93       0.00       1.00
   800   229 319830       0.93       0.17       0.82
     1   228    229       0.93       0.00       1.00
   800   228 319829       0.93       0.17       0.82
     1   227    228       0.93       0.00       1.00
   800   227 319828       0.93       0.17       0.82
     1   226    227       0.93       0.00       1.00
   800   226 319827       0.93       0.16       0.82
     1   225    226       0.93       0.00       1.00
   800   225 319826       0.93       0.16       0.82
     1   224    225       0.93       0.00       1.00
   800   224 319825       0.93       0.16       0.83
     1   223    224       0.93       0.00       1.00
   800   223 319824       0.93       0.16       0.83
     1   222    223       0.93       0.00       1.00
   800   222 319823       0.93       0.16       0.83
     1   221    222       0.93       0.00       1.00
   800   221 319822       0.93       0.16       0.83
     1   220    221       0.93       0.00       1.00
   800   220 319821       0.93       0.16       0.83
     1   219    220       0.93       0.00       1.00
   800   219 319820       0.93       0.16       0.83
     1   218    219       0.93       0.00       1.00
   800   218 319819       0.93       0.16       0.83
     1   217    218       0.93       0.00       1.00
   800   217 319818       0.93       0.16       0.83
     1   216    217       0.93       0.00       1.00
   800   216 319817       0.93       0.16       0.83
     1   215    216       0.93       0.00       1.00
   800   215 319816       0.93       0.16       0.83
     1   214    215       0.93       0.00       1.00
   800   214 319815       0.93       0.16       0.83
     1   213    214       0.93       0.00       1.00
   800   213 319814       0.93       0.16       0.83
     1   212    213       0.93       0.00       1.00
   800   212 319813       0.93       0.16       0.83
   800   211 319812       0.93       0.15       0.83
   800   210 319811       0.93       0.15       0.83
   800   209 319810       0.93       0.15       0.83
   800   208 319809       0.93       0.15       0.84
   800   207 319808       0.93       0.15       0.84
   800   206 319807       0.93       0.15       0.84
   800   205 319806       0.93       0.15       0.84
   800   204 319805       0.93       0.15       0.84
   800   203 319804       0.93       0.15       0.84
   800   202 319803       0.93       0.15       0.84
   800   201 319802       0.93       0.15       0.84
   800   200 319801       0.93       0.15       0.84
   800   199 319800       0.93       0.15       0.84
   800   198 319799       0.93       0.15       0.84
   800   197 319798       0.93       0.15       0.84
   800   196 319797       0.93       0.15       0.84
   800   195 319796       0.93       0.15       0.84
   800   194 319795       0.93       0.15       0.84
   800   193 319794       0.93       0.15       0.84
   800   192 319793       0.93       0.15       0.84
   800   191 319792       0.93       0.15       0.84
   800   190 319791       0.93       0.15       0.84
   800   189 319790       0.93       0.15       0.84
   800   188 319789       0.93       0.15       0.84
   800   187 319788       0.93       0.15       0.84
   800   186 319787       0.93       0.15       0.84
   800   185 319786       0.93       0.15       0.84
   800   184 319785       0.93       0.15       0.84
   800   183 319784       0.93       0.15       0.84
   800   182 319783       0.93       0.15       0.84
   800   181 319782       0.93       0.15       0.84
   800   180 319781       0.93       0.15       0.84
   800   179 319780       0.93       0.15       0.84
   800   178 319779       0.93       0.15       0.84
   800   177 319778       0.93       0.15       0.84
   800   176 319777       0.93       0.15       0.84
   800   175 319776       0.93       0.15       0.84
   800   174 319775       0.93       0.15       0.84
   800   173 319774       0.93       0.15       0.84
   800   172 319773       0.93       0.15       0.84
   800   171 319772       0.93       0.15       0.84
   800   170 319771       0.93       0.15       0.84
   800   169 319770       0.93       0.15       0.84
   800   168 319769       0.93       0.15       0.84
   800   167 319768       0.93       0.15       0.84
   800   166 319767       0.93       0.14       0.84
   800   165 319766       0.93       0.14       0.85
   800   164 319765       0.93       0.14       0.85
   800   163 319764       0.93       0.14       0.85
   800   162 319763       0.93       0.14       0.85
   800   161 319762       0.93       0.14       0.85
   800   160 319761       0.93       0.14       0.85
   800   159 319760       0.93       0.13       0.86
   800   158 319759       0.93       0.13       0.86
   800   157 319758       0.93       0.13       0.86
   800   156 319757       0.93       0.13       0.86
   800   155 319756       0.93       0.13       0.86
   800   154 319755       0.93       0.13       0.86
   800   153 319754       0.93       0.13       0.86
   800   152 319753       0.93       0.13       0.86
   800   151 319752       0.93       0.13       0.87
   800   150 319751       0.93       0.12       0.87
   800   149 319750       0.93       0.12       0.87
   800   148 319749       0.93       0.12       0.87
   800   147 319748       0.93       0.12       0.87
   800   146 319747       0.93       0.12       0.87
   800   145 319746       0.93       0.12       0.87
   800   144 319745       0.93       0.12       0.87
   800   143 319744       0.93       0.12       0.87
   800   142 319743       0.93       0.12       0.87
   800   141 319742       0.93       0.12       0.87
   800   140 319741       0.93       0.12       0.87
   800   139 319740       0.93       0.12       0.87
   800   138 319739       0.93       0.12       0.87
   800   137 319738       0.93       0.12       0.87
   800   136 319737       0.93       0.12       0.87
   800   135 319736       0.93       0.12       0.87
   800   134 319735       0.93       0.12       0.87
   800   133 319734       0.93       0.12       0.87
   800   132 319733       0.93       0.12       0.87
   800   131 319732       0.93       0.12       0.88
   800   130 319731       0.93       0.12       0.88
   800   129 319730       0.93       0.12       0.88
   800   128 319729       0.93       0.11       0.88
   800   127 319728       0.93       0.11       0.88
   800   126 319727       0.93       0.11       0.88
   800   125 319726       0.93       0.11       0.88
   800   124 319725       0.93       0.11       0.88
   800   123 319724       0.93       0.11       0.88
   800   122 319723       0.93       0.11       0.88
   800   121 319722       0.93       0.11       0.88
   800   120 319721       0.93       0.11       0.88
   800   119 319720       0.93       0.11       0.88
   800   118 319719       0.93       0.11       0.88
   800   117 319718       0.93       0.11       0.88
   800   116 319717       0.93       0.11       0.88
   800   115 319716       0.93       0.11       0.88
   800   114 319715       0.93       0.11       0.88
   800   113 319714       0.93       0.11       0.88
   800   112 319713       0.93       0.11       0.88
   800   111 319712       0.93       0.11       0.88
   800   110 319711       0.93       0.11       0.88
   800   109 319710       0.93       0.11       0.88
   800   108 319709       0.93       0.11       0.88
   800   107 319708       0.93       0.11       0.88
   800   106 319707       0.93       0.11       0.88
   800   105 319706       0.93       0.11       0.88
   800   104 319705       0.93       0.11       0.88
   800   103 319704       0.93       0.11       0.89
   800   102 319703       0.93       0.11       0.89
   800   101 319702       0.93       0.11       0.89
   800   100 319701       0.93       0.11       0.89
   800    99 319700       0.93       0.11       0.89
   800    98 319699       0.93       0.10       0.89
   800    97 319698       0.93       0.10       0.89
   800    96 319697       0.93       0.10       0.89
   800    95 319696       0.93       0.10       0.89
   800    94 319695       0.93       0.10       0.89
   800    93 319694       0.93       0.10       0.89
   800    92 319693       0.93       0.10       0.89
   800    91 319692       0.93       0.10       0.89
   800    90 319691       0.93       0.10       0.89
   800    89 319690       0.93       0.10       0.89
   800    88 319689       0.93       0.10       0.89
   800    87 319688       0.93       0.10       0.89
   800    86 319687       0.93       0.10       0.89
   800    85 319686       0.93       0.10       0.89
   800    84 319685       0.93       0.10       0.89
   800    83 319684       0.93       0.10       0.89
   800    82 319683       0.93       0.10       0.89
   800    81 319682       0.93       0.10       0.89
   800    80 319681       0.93       0.10       0.89
   800    79 319680       0.93       0.10       0.89
   800    78 319679       0.93       0.10       0.89
   800    77 319678       0.93       0.10       0.89
   800    76 319677       0.93       0.10       0.89
   800    75 319676       0.93       0.10       0.89
   800    74 319675       0.93       0.10       0.89
   800    73 319674       0.93       0.10       0.89
   800    72 319673       0.93       0.10       0.89
   800    71 319672       0.93       0.10       0.89
   800    70 319671       0.93       0.10       0.89
   800    69 319670       0.93       0.10       0.89
   800    68 319669       0.93       0.10       0.89
   800    67 319668       0.93       0.10       0.89
   800    66 319667       0.93       0.10       0.89
   800    65 319666       0.93       0.10       0.90
   800    64 319665       0.93       0.10       0.90
   800    63 319664       0.93       0.10       0.90
   800    62 319663       0.93       0.10       0.90
   800    61 319662       0.93       0.10       0.90
   800    60 319661       0.93       0.10       0.90
   800    59 319660       0.93       0.10       0.90
   800    58 319659       0.93       0.10       0.90
   800    57 319658       0.93       0.10       0.90
   800    56 319657       0.93       0.10       0.90
   800    55 319656       0.93       0.09       0.90
   800    54 319655       0.93       0.09       0.90
   800    53 319654       0.93       0.09       0.90
   800    52 319653       0.93       0.09       0.90
   800    51 319652       0.93       0.09       0.90
   800    50 319651       0.93       0.09       0.90
   800    49 319650       0.93       0.09       0.90
   800    48 319649       0.93       0.09       0.90
   800    47 319648       0.93       0.09       0.90
   800    46 319647       0.93       0.09       0.90
   800    45 319646       0.93       0.09       0.90
   800    44 319645       0.93       0.09       0.90
   800    43 319644       0.93       0.09       0.90
   800    42 319643       0.93       0.09       0.90
   800    41 319642       0.93       0.09       0.90
   800    40 319641       0.93       0.09       0.90
   800    39 319640       0.93       0.09       0.90
   800    38 319639       0.93       0.09       0.90
   800    37 319638       0.93       0.09       0.90
   800    36 319637       0.93       0.09       0.90
   800    35 319636       0.93       0.09       0.90
   800    34 319635       0.93       0.09       0.90
   800    33 319634       0.93       0.09       0.90
   800    32 319633       0.93       0.09       0.90
   800    31 319632       0.93       0.09       0.90
   800    30 319631       0.93       0.09       0.90
   800    29 319630       0.93       0.09       0.90
   800    28 319629       0.93       0.09       0.90
   800    27 319628       0.93       0.09       0.90
   800    26 319627       0.93       0.09       0.90
   800    25 319626       0.93       0.09       0.90
   800    24 319625       0.93       0.09       0.90
   800    23 319624       0.93       0.09       0.90
   800    22 319623       0.93       0.09       0.90
   800    21 319622       0.93       0.09       0.90
   800    20 319621       0.93       0.09       0.91
   800    19 319620       0.93       0.09       0.91
   800    18 319619       0.93       0.09       0.91
   800    17 319618       0.93       0.09       0.91
   800    16 319617       0.93       0.09       0.91
   800    15 319616       0.93       0.09       0.91
   800    14 319615       0.93       0.09       0.91
   800    13 319614       0.93       0.09       0.91
   800    12 319613       0.93       0.09       0.91
   800    11 319612       0.93       0.09       0.91
   800    10 319611       0.93       0.09       0.91
   800     9 319610       0.93       0.09       0.91
   800     8 319609       0.93       0.09       0.91
   800     7 319608       0.93       0.09       0.91
   800     6 319607       0.93       0.09       0.91
   800     5 319606       0.93       0.09       0.91
   800     4 319605       0.93       0.09       0.91
   800     3 319604       0.93       0.09       0.91
   800     2 319603       0.93       0.09       0.91
     5     1   1602       0.93       0.83       0.11
     6     1   2002       0.93       0.80       0.14
     7     1   2402       0.93       0.77       0.18
     8     1   2802       0.93       0.74       0.20
     9     1   3202       0.93       0.72       0.22
    10     1   3602       0.93       0.71       0.24
    11     1   4002       0.93       0.71       0.24
    12     1   4402       0.93       0.71       0.24
    13     1   4802       0.93       0.72       0.23
    14     1   5202       0.93       0.72       0.22
    15     1   5602       0.93       0.73       0.22
    16     1   6002       0.93       0.73       0.21
    17     1   6402       0.93       0.73       0.21
    18     1   6802       0.93       0.73       0.21
    19     1   7202       0.93       0.73       0.22
    20     1   7602       0.93       0.73       0.22
    21     1   8002       0.93       0.72       0.23
    22     1   8402       0.93       0.71       0.24
    23     1   8802       0.93       0.70       0.25
    24     1   9202       0.93       0.69       0.26
    25     1   9602       0.93       0.68       0.27
    26     1  10002       0.93       0.67       0.28
    27     1  10402       0.93       0.66       0.29
    28     1  10802       0.93       0.64       0.31
    29     1  11202       0.93       0.63       0.32
    30     1  11602       0.93       0.61       0.35
    31     1  12002       0.93       0.59       0.37
    32     1  12402       0.93       0.57       0.39
    33     1  12802       0.93       0.55       0.41
    34     1  13202       0.93       0.52       0.44
    35     1  13602       0.93       0.50       0.46
    36     1  14002       0.93       0.48       0.48
    37     1  14402       0.93       0.46       0.50
    38     1  14802       0.93       0.45       0.52
    39     1  15202       0.93       0.43       0.53
    40     1  15602       0.93       0.42       0.55
    41     1  16002       0.93       0.41       0.56
    42     1  16402       0.93       0.39       0.58
    43     1  16802       0.93       0.38       0.59
    44     1  17202       0.93       0.37       0.60
    45     1  17602       0.93       0.36       0.62
    46     1  18002       0.93       0.35       0.63
    47     1  18402       0.93       0.34       0.64
    48     1  18802       0.93       0.33       0.64
    49     1  19202       0.93       0.33       0.65
    50     1  19602       0.93       0.33       0.65
    51     1  20002       0.93       0.32       0.66
    52     1  20402       0.93       0.32       0.66
    53     1  20802       0.93       0.31       0.67
    54     1  21202       0.93       0.30       0.68
    55     1  21602       0.93       0.30       0.68
    56     1  22002       0.93       0.29       0.69
    57     1  22402       0.93       0.28       0.70
    58     1  22802       0.93       0.27       0.70
    59     1  23202       0.93       0.27       0.71
    60     1  23602       0.93       0.26       0.72
    61     1  24002       0.93       0.25       0.73
    62     1  24402       0.93       0.24       0.74
    63     1  24802       0.93       0.23       0.75
    64     1  25202       0.93       0.22       0.76
    65     1  25602       0.93       0.21       0.77
    66     1  26002       0.93       0.20       0.78
    67     1  26402       0.93       0.19       0.79
    68     1  26802       0.93       0.18       0.80
    69     1  27202       0.93       0.17       0.81
    70     1  27602       0.93       0.17       0.82
    71     1  28002       0.93       0.16       0.83
    72     1  28402       0.93       0.16       0.83
    73     1  28802       0.93       0.15       0.83
    74     1  29202       0.93       0.15       0.84
    75     1  29602       0.93       0.15       0.84
    76     1  30002       0.93       0.15       0.84
    77     1  30402       0.93       0.15       0.84
    78     1  30802       0.93       0.15       0.84
    79     1  31202       0.93       0.15       0.83
    80     1  31602       0.93       0.16       0.83
    81     1  32002       0.93       0.16       0.83
    82     1  32402       0.93       0.16       0.82
    83     1  32802       0.93       0.17       0.82
    84     1  33202       0.93       0.17       0.82
    85     1  33602       0.93       0.17       0.81
    86     1  34002       0.93       0.17       0.81
    87     1  34402       0.93       0.17       0.81
    88     1  34802       0.93       0.17       0.81
    89     1  35202       0.93       0.18       0.81
    90     1  35602       0.93       0.18       0.80
    91     1  36002       0.93       0.19       0.80
    92     1  36402       0.93       0.19       0.79
    93     1  36802       0.93       0.19       0.79
    94     1  37202       0.93       0.19       0.79
    95     1  37602       0.93       0.19       0.79
    96     1  38002       0.93       0.19       0.80
    97     1  38402       0.93       0.18       0.81
    98     1  38802       0.93       0.18       0.81
    99     1  39202       0.93       0.17       0.82
   100     1  39602       0.93       0.17       0.82
   101     1  40002       0.93       0.16       0.82
   102     1  40402       0.93       0.16       0.83
   103     1  40802       0.93       0.16       0.83
   104     1  41202       0.93       0.16       0.83
   105     1  41602       0.93       0.16       0.83
   106     1  42002       0.93       0.16       0.83
   107     1  42402       0.93       0.16       0.82
   108     1  42802       0.93       0.17       0.82
   109     1  43202       0.93       0.17       0.82
   110     1  43602       0.93       0.17       0.82
   111     1  44002       0.93       0.17       0.81
   112     1  44402       0.93       0.17       0.81
   113     1  44802       0.93       0.17       0.82
   114     1  45202       0.93       0.17       0.82
   115     1  45602       0.93       0.17       0.82
   116     1  46002       0.93       0.17       0.82
   117     1  46402       0.93       0.17       0.82
   118     1  46802       0.93       0.17       0.82
   119     1  47202       0.93       0.17       0.82
   120     1  47602       0.93       0.17       0.82
   121     1  48002       0.93       0.17       0.81
   122     1  48402       0.93       0.18       0.81
   123     1  48802       0.93       0.18       0.80
   124     1  49202       0.93       0.19       0.80
   125     1  49602       0.93       0.19       0.79
   126     1  50002       0.93       0.20       0.79
   127     1  50402       0.93       0.20       0.79
   128     1  50802       0.93       0.20       0.78
   129     1  51202       0.93       0.20       0.78
   130     1  51602       0.93       0.20       0.78
   131     1  52002       0.93       0.20       0.78
   132     1  52402       0.93       0.20       0.78
   133     1  52802       0.93       0.20       0.78
   134     1  53202       0.93       0.20       0.79
   135     1  53602       0.93       0.20       0.79
   136     1  54002       0.93       0.19       0.79
   137     1  54402       0.93       0.19       0.79
   138     1  54802       0.93       0.19       0.79
   139     1  55202       0.93       0.19       0.79
   140     1  55602       0.93       0.19       0.80
   141     1  56002       0.93       0.19       0.80
   142     1  56402       0.93       0.18       0.80
   143     1  56802       0.93       0.18       0.81
   144     1  57202       0.93       0.18       0.81
   145     1  57602       0.93       0.17       0.82
   146     1  58002       0.93       0.17       0.82
   147     1  58402       0.93       0.16       0.82
   148     1  58802       0.93       0.16       0.83
   149     1  59202       0.93       0.16       0.83
   150     1  59602       0.93       0.15       0.83
   151     1  60002       0.93       0.15       0.84
   152     1  60402       0.93       0.15       0.84
   153     1  60802       0.93       0.15       0.84
   154     1  61202       0.93       0.14       0.85
   155     1  61602       0.93       0.14       0.85
   156     1  62002       0.93       0.14       0.85
   157     1  62402       0.93       0.13       0.86
   158     1  62802       0.93       0.13       0.86
   159     1  63202       0.93       0.12       0.87
   160     1  63602       0.93       0.12       0.87
   161     1  64002       0.93       0.12       0.87
   162     1  64402       0.93       0.11       0.88
   163     1  64802       0.93       0.11       0.88
   164     1  65202       0.93       0.11       0.88
   165     1  65602       0.93       0.11       0.89
   166     1  66002       0.93       0.10       0.89
   167     1  66402       0.93       0.10       0.89
   168     1  66802       0.93       0.10       0.89
   169     1  67202       0.93       0.10       0.90
   170     1  67602       0.93       0.09       0.90
   171     1  68002       0.93       0.09       0.90
   172     1  68402       0.93       0.09       0.91
   173     1  68802       0.93       0.08       0.91
   174     1  69202       0.93       0.08       0.91
   175     1  69602       0.93       0.08       0.92
   176     1  70002       0.93       0.07       0.92
   177     1  70402       0.93       0.07       0.92
   178     1  70802       0.93       0.07       0.93
   179     1  71202       0.93       0.06       0.93
   180     1  71602       0.93       0.06       0.93
   181     1  72002       0.93       0.06       0.94
   182     1  72402       0.93       0.05       0.94
   183     1  72802       0.93       0.05       0.94
   184     1  73202       0.93       0.05       0.95
   185     1  73602       0.93       0.05       0.95
   186     1  74002       0.93       0.05       0.95
   187     1  74402       0.93       0.05       0.95
   188     1  74802       0.93       0.05       0.95
   189     1  75202       0.93       0.04       0.95
   190     1  75602       0.93       0.04       0.95
   191     1  76002       0.93       0.04       0.95
   192     1  76402       0.93       0.04       0.96
   193     1  76802       0.93       0.04       0.96
   194     1  77202       0.93       0.04       0.96
   195     1  77602       0.93       0.04       0.96
   196     1  78002       0.93       0.04       0.96
   197     1  78402       0.93       0.04       0.96
   198     1  78802       0.93       0.04       0.96
   199     1  79202       0.93       0.04       0.96
   200     1  79602       0.93       0.04       0.96
   201     1  80002       0.93       0.04       0.96
   202     1  80402       0.93       0.04       0.96
   203     1  80802       0.93       0.04       0.96
   204     1  81202       0.93       0.04       0.96
   205     1  81602       0.93       0.04       0.96
   206     1  82002       0.93       0.03       0.96
   207     1  82402       0.93       0.03       0.97
   208     1  82802       0.93       0.03       0.97
   209     1  83202       0.93       0.03       0.97
   210     1  83602       0.93       0.02       0.98
   211     1  84002       0.93       0.02       0.98
   212     1  84402       0.93       0.02       0.98
   213     1  84802       0.93       0.02       0.98
   214     1  85202       0.93       0.02       0.98
   215     1  85602       0.93       0.02       0.98
   216     1  86002       0.93       0.03       0.97
   217     1  86402       0.93       0.03       0.97
   218     1  86802       0.93       0.03       0.97
   219     1  87202       0.93       0.03       0.96
   220     1  87602       0.93       0.04       0.96
   221     1  88002       0.93       0.04       0.96
   222     1  88402       0.93       0.04       0.96
   223     1  88802       0.93       0.04       0.96
   224     1  89202       0.93       0.04       0.96
   225     1  89602       0.93       0.04       0.96
   226     1  90002       0.93       0.04       0.96
   227     1  90402       0.93       0.04       0.96
   228     1  90802       0.93       0.04       0.96
   229     1  91202       0.93       0.04       0.96
   230     1  91602       0.93       0.03       0.96
   231     1  92002       0.93       0.03       0.96
   232     1  92402       0.93       0.03       0.97
   233     1  92802       0.93       0.03       0.97
   234     1  93202       0.93       0.03       0.97
   235     1  93602       0.93       0.03       0.97
   236     1  94002       0.93       0.03       0.97
   237     1  94402       0.93       0.03       0.97
   238     1  94802       0.93       0.03       0.97
   239     1  95202       0.93       0.03       0.97
   240     1  95602       0.93       0.03       0.97
   241     1  96002       0.93       0.03       0.97
   242     1  96402       0.93       0.03       0.97
   243     1  96802       0.93       0.03       0.97
   244     1  97202       0.93       0.03       0.97
[...]
   424     1 169202       0.93       0.02       0.98
   425     1 169602       0.93       0.02       0.98
   426     1 170002       0.93       0.02       0.98
   427     1 170402       0.93       0.02       0.98
   428     1 170802       0.93       0.02       0.98
   429     1 171202       0.93       0.02       0.98
   430     1 171602       0.93       0.02       0.98
   431     1 172002       0.93       0.02       0.98
   432     1 172402       0.93       0.02       0.98
   433     1 172802       0.93       0.02       0.98
   434     1 173202       0.93       0.02       0.98
   435     1 173602       0.93       0.02       0.98
   436     1 174002       0.93       0.02       0.98
   437     1 174402       0.93       0.02       0.98
   438     1 174802       0.93       0.02       0.98
   439     1 175202       0.93       0.02       0.98
   440     1 175602       0.93       0.02       0.98
   441     1 176002       0.93       0.02       0.98
   442     1 176402       0.93       0.02       0.98
   443     1 176802       0.93       0.02       0.98
   444     1 177202       0.93       0.02       0.98
   445     1 177602       0.93       0.02       0.98
   446     1 178002       0.93       0.02       0.98
   447     1 178402       0.93       0.02       0.98
   448     1 178802       0.93       0.02       0.98
   449     1 179202       0.93       0.02       0.98
   450     1 179602       0.93       0.02       0.98
   451     1 180002       0.93       0.02       0.98
   452     1 180402       0.93       0.02       0.98
   453     1 180802       0.93       0.02       0.98
   454     1 181202       0.93       0.02       0.98
   455     1 181602       0.93       0.02       0.98
   456     1 182002       0.93       0.02       0.98
   457     1 182402       0.93       0.02       0.98
   458     1 182802       0.93       0.02       0.98
   459     1 183202       0.93       0.02       0.98
   460     1 183602       0.93       0.02       0.98
   461     1 184002       0.93       0.02       0.98
   462     1 184402       0.93       0.02       0.98
   463     1 184802       0.93       0.02       0.98
   464     1 185202       0.93       0.02       0.98
   465     1 185602       0.93       0.02       0.98
   466     1 186002       0.93       0.02       0.98
   467     1 186402       0.93       0.02       0.98
   468     1 186802       0.93       0.02       0.98
   469     1 187202       0.93       0.02       0.98
   470     1 187602       0.93       0.02       0.98
   471     1 188002       0.93       0.02       0.97
   472     1 188402       0.93       0.02       0.97
   473     1 188802       0.93       0.02       0.97
   474     1 189202       0.93       0.02       0.97
   475     1 189602       0.93       0.02       0.97
   476     1 190002       0.93       0.02       0.97
   477     1 190402       0.93       0.02       0.97
   478     1 190802       0.93       0.02       0.97
   479     1 191202       0.93       0.02       0.97
   480     1 191602       0.93       0.02       0.97
   481     1 192002       0.93       0.02       0.97
   482     1 192402       0.93       0.02       0.97
   483     1 192802       0.93       0.02       0.97
   484     1 193202       0.93       0.02       0.97
   485     1 193602       0.93       0.02       0.97
   486     1 194002       0.93       0.02       0.97
   487     1 194402       0.93       0.02       0.97
   488     1 194802       0.93       0.02       0.98
   489     1 195202       0.93       0.02       0.98
   490     1 195602       0.93       0.02       0.98
   491     1 196002       0.93       0.02       0.98
   492     1 196402       0.93       0.02       0.98
   493     1 196802       0.93       0.02       0.98
   494     1 197202       0.93       0.02       0.98
   495     1 197602       0.93       0.02       0.98
   496     1 198002       0.93       0.02       0.98
   497     1 198402       0.93       0.02       0.98
   498     1 198802       0.93       0.02       0.98
   499     1 199202       0.93       0.02       0.98
   500     1 199602       0.93       0.02       0.98
   501     1 200002       0.93       0.02       0.98
   502     1 200402       0.93       0.02       0.98
   503     1 200802       0.93       0.02       0.98
   504     1 201202       0.93       0.02       0.98
   505     1 201602       0.93       0.02       0.98
   506     1 202002       0.93       0.02       0.98
   507     1 202402       0.93       0.02       0.98
   508     1 202802       0.93       0.02       0.98
   509     1 203202       0.93       0.02       0.98
   510     1 203602       0.93       0.02       0.98
   511     1 204002       0.93       0.01       0.98
   512     1 204402       0.93       0.01       0.98
   513     1 204802       0.93       0.01       0.98
   514     1 205202       0.93       0.01       0.98
   515     1 205602       0.93       0.01       0.99
   516     1 206002       0.93       0.01       0.99
   517     1 206402       0.93       0.01       0.99
   518     1 206802       0.93       0.01       0.99
   519     1 207202       0.93       0.01       0.99
   520     1 207602       0.93       0.01       0.99
   521     1 208002       0.93       0.01       0.99
   522     1 208402       0.93       0.01       0.99
   523     1 208802       0.93       0.01       0.99
   524     1 209202       0.93       0.01       0.99
   525     1 209602       0.93       0.01       0.99
   526     1 210002       0.93       0.01       0.99
   527     1 210402       0.93       0.01       0.99
   528     1 210802       0.93       0.01       0.99
   529     1 211202       0.93       0.01       0.99
   530     1 211602       0.93       0.01       0.99
   531     1 212002       0.93       0.01       0.99
   532     1 212402       0.93       0.01       0.99
   533     1 212802       0.93       0.01       0.99
   534     1 213202       0.93       0.01       0.99
   535     1 213602       0.93       0.01       0.99
   536     1 214002       0.93       0.01       0.99
   537     1 214402       0.93       0.01       0.99
   538     1 214802       0.93       0.01       0.99
   539     1 215202       0.93       0.01       0.99
   540     1 215602       0.93       0.01       0.98
   541     1 216002       0.93       0.01       0.98
   542     1 216402       0.93       0.01       0.98
   543     1 216802       0.93       0.02       0.98
   544     1 217202       0.93       0.02       0.98
   545     1 217602       0.93       0.02       0.98
   546     1 218002       0.93       0.02       0.98
   547     1 218402       0.93       0.02       0.98
   548     1 218802       0.93       0.02       0.98
   549     1 219202       0.93       0.02       0.98
   550     1 219602       0.93       0.02       0.98
   551     1 220002       0.93       0.02       0.98
   552     1 220402       0.93       0.02       0.98
   553     1 220802       0.93       0.02       0.98
   554     1 221202       0.93       0.02       0.98
   555     1 221602       0.93       0.02       0.98
   556     1 222002       0.93       0.02       0.98
   557     1 222402       0.93       0.02       0.97
   558     1 222802       0.93       0.03       0.97
   559     1 223202       0.93       0.03       0.96
   560     1 223602       0.93       0.04       0.96
   561     1 224002       0.93       0.04       0.95
   562     1 224402       0.93       0.05       0.95
   563     1 224802       0.93       0.05       0.95
   564     1 225202       0.93       0.05       0.94
   565     1 225602       0.93       0.06       0.94
   566     1 226002       0.93       0.06       0.94
   567     1 226402       0.93       0.06       0.94
   568     1 226802       0.93       0.06       0.93
   569     1 227202       0.93       0.06       0.93
   570     1 227602       0.93       0.06       0.93
   571     1 228002       0.93       0.06       0.93
   572     1 228402       0.93       0.06       0.93
   573     1 228802       0.93       0.07       0.93
   574     1 229202       0.93       0.07       0.93
   575     1 229602       0.93       0.07       0.93
   576     1 230002       0.93       0.07       0.93
   577     1 230402       0.93       0.07       0.93
   578     1 230802       0.93       0.07       0.93
   579     1 231202       0.93       0.07       0.93
   580     1 231602       0.93       0.07       0.93
   581     1 232002       0.93       0.07       0.93
   582     1 232402       0.93       0.06       0.93
   583     1 232802       0.93       0.06       0.93
   584     1 233202       0.93       0.06       0.94
   585     1 233602       0.93       0.06       0.94
   586     1 234002       0.93       0.05       0.94
   587     1 234402       0.93       0.05       0.95
   588     1 234802       0.93       0.05       0.95
   589     1 235202       0.93       0.04       0.95
   590     1 235602       0.93       0.04       0.96
   591     1 236002       0.93       0.04       0.96
   592     1 236402       0.93       0.03       0.97
   593     1 236802       0.93       0.03       0.97
   594     1 237202       0.93       0.03       0.97
   595     1 237602       0.93       0.02       0.98
   596     1 238002       0.93       0.02       0.98
   597     1 238402       0.93       0.02       0.98
   598     1 238802       0.93       0.02       0.98
   599     1 239202       0.93       0.02       0.98
   600     1 239602       0.93       0.02       0.98
   601     1 240002       0.93       0.01       0.98
   602     1 240402       0.93       0.01       0.98
   603     1 240802       0.93       0.01       0.98
   604     1 241202       0.93       0.01       0.98
   605     1 241602       0.93       0.01       0.98
   606     1 242002       0.93       0.01       0.98
   607     1 242402       0.93       0.01       0.98
   608     1 242802       0.93       0.01       0.98
   609     1 243202       0.93       0.01       0.98
   610     1 243602       0.93       0.01       0.99
   611     1 244002       0.93       0.01       0.99
   612     1 244402       0.93       0.01       0.99
   613     1 244802       0.93       0.01       0.99
   614     1 245202       0.93       0.01       0.98
   615     1 245602       0.93       0.02       0.98
   616     1 246002       0.93       0.02       0.98
   617     1 246402       0.93       0.02       0.98
   618     1 246802       0.93       0.02       0.98
   619     1 247202       0.93       0.02       0.98
   620     1 247602       0.93       0.02       0.98
   621     1 248002       0.93       0.02       0.98
   622     1 248402       0.93       0.02       0.98
   623     1 248802       0.93       0.02       0.98
   624     1 249202       0.93       0.01       0.98
   625     1 249602       0.93       0.01       0.98
   626     1 250002       0.93       0.02       0.98
   627     1 250402       0.93       0.02       0.98
   628     1 250802       0.93       0.02       0.98
   629     1 251202       0.93       0.02       0.97
   630     1 251602       0.93       0.03       0.97
   631     1 252002       0.93       0.03       0.97
   632     1 252402       0.93       0.03       0.97
   633     1 252802       0.93       0.03       0.96
   634     1 253202       0.93       0.04       0.96
   635     1 253602       0.93       0.04       0.96
   636     1 254002       0.93       0.04       0.96
   637     1 254402       0.93       0.04       0.96
   638     1 254802       0.93       0.04       0.96
   639     1 255202       0.93       0.04       0.96
   640     1 255602       0.93       0.04       0.95
   641     1 256002       0.93       0.04       0.95
   642     1 256402       0.93       0.05       0.95
   643     1 256802       0.93       0.05       0.95
   644     1 257202       0.93       0.05       0.94
   645     1 257602       0.93       0.06       0.94
   646     1 258002       0.93       0.06       0.94
   647     1 258402       0.93       0.06       0.93
   648     1 258802       0.93       0.06       0.93
   649     1 259202       0.93       0.07       0.93
   650     1 259602       0.93       0.07       0.93
   651     1 260002       0.93       0.07       0.92
   652     1 260402       0.93       0.07       0.92
   653     1 260802       0.93       0.07       0.92
   654     1 261202       0.93       0.07       0.92
   655     1 261602       0.93       0.07       0.92
   656     1 262002       0.93       0.07       0.92
   657     1 262402       0.93       0.07       0.93
   658     1 262802       0.93       0.07       0.93
   659     1 263202       0.93       0.07       0.93
   660     1 263602       0.93       0.06       0.93
   661     1 264002       0.93       0.06       0.93
   662     1 264402       0.93       0.06       0.93
   663     1 264802       0.93       0.07       0.93
   664     1 265202       0.93       0.07       0.93
   665     1 265602       0.93       0.07       0.93
   666     1 266002       0.93       0.07       0.92
   667     1 266402       0.93       0.07       0.92
   668     1 266802       0.93       0.07       0.92
   669     1 267202       0.93       0.08       0.92
   670     1 267602       0.93       0.08       0.92
   671     1 268002       0.93       0.08       0.92
   672     1 268402       0.93       0.08       0.92
   673     1 268802       0.93       0.07       0.92
   674     1 269202       0.93       0.07       0.92
   675     1 269602       0.93       0.07       0.93
   676     1 270002       0.93       0.07       0.93
   677     1 270402       0.93       0.06       0.93
   678     1 270802       0.93       0.06       0.94
   679     1 271202       0.93       0.06       0.94
   680     1 271602       0.93       0.05       0.94
   681     1 272002       0.93       0.05       0.95
   682     1 272402       0.93       0.05       0.95
   683     1 272802       0.93       0.04       0.96
   684     1 273202       0.93       0.04       0.96
   685     1 273602       0.93       0.04       0.96
   686     1 274002       0.93       0.03       0.96
   687     1 274402       0.93       0.03       0.97
   688     1 274802       0.93       0.03       0.97
   689     1 275202       0.93       0.03       0.97
   690     1 275602       0.93       0.03       0.97
   691     1 276002       0.93       0.03       0.97
   692     1 276402       0.93       0.03       0.97
   693     1 276802       0.93       0.03       0.97
   694     1 277202       0.93       0.03       0.97
   695     1 277602       0.93       0.03       0.97
   696     1 278002       0.93       0.03       0.96
   697     1 278402       0.93       0.04       0.96
   698     1 278802       0.93       0.04       0.96
   699     1 279202       0.93       0.04       0.96
   700     1 279602       0.93       0.04       0.96
   701     1 280002       0.93       0.04       0.96
   702     1 280402       0.93       0.04       0.96
   703     1 280802       0.93       0.04       0.96
   704     1 281202       0.93       0.04       0.96
   705     1 281602       0.93       0.04       0.96
   706     1 282002       0.93       0.04       0.95
   707     1 282402       0.93       0.04       0.95
   708     1 282802       0.93       0.05       0.95
   709     1 283202       0.93       0.05       0.95
   710     1 283602       0.93       0.05       0.94
   711     1 284002       0.93       0.06       0.94
   712     1 284402       0.93       0.06       0.94
   713     1 284802       0.93       0.06       0.93
   714     1 285202       0.93       0.06       0.93
   715     1 285602       0.93       0.07       0.93
   716     1 286002       0.93       0.07       0.93
   717     1 286402       0.93       0.07       0.93
   718     1 286802       0.93       0.07       0.92
   719     1 287202       0.93       0.07       0.92
   720     1 287602       0.93       0.07       0.92
   721     1 288002       0.93       0.08       0.92
   722     1 288402       0.93       0.08       0.92
   723     1 288802       0.93       0.08       0.91
   724     1 289202       0.93       0.08       0.91
   725     1 289602       0.93       0.08       0.91
   726     1 290002       0.93       0.08       0.92
   727     1 290402       0.93       0.08       0.92
   728     1 290802       0.93       0.08       0.92
   729     1 291202       0.93       0.08       0.92
   730     1 291602       0.93       0.08       0.92
   731     1 292002       0.93       0.07       0.92
   732     1 292402       0.93       0.07       0.92
   733     1 292802       0.93       0.07       0.92
   734     1 293202       0.93       0.07       0.92
   735     1 293602       0.93       0.07       0.92
   736     1 294002       0.93       0.07       0.92
   737     1 294402       0.93       0.07       0.92
   738     1 294802       0.93       0.08       0.92
   739     1 295202       0.93       0.08       0.92
   740     1 295602       0.93       0.08       0.91
   741     1 296002       0.93       0.09       0.91
   742     1 296402       0.93       0.09       0.90
   743     1 296802       0.93       0.09       0.90
   744     1 297202       0.93       0.09       0.90
   745     1 297602       0.93       0.09       0.90
   746     1 298002       0.93       0.09       0.91
   747     1 298402       0.93       0.09       0.91
   748     1 298802       0.93       0.08       0.91
   749     1 299202       0.93       0.08       0.91
   750     1 299602       0.93       0.08       0.91
   751     1 300002       0.93       0.08       0.91
   752     1 300402       0.93       0.08       0.91
   753     1 300802       0.93       0.08       0.92
   754     1 301202       0.93       0.08       0.92
   755     1 301602       0.93       0.07       0.92
   756     1 302002       0.93       0.07       0.92
   757     1 302402       0.93       0.07       0.93
   758     1 302802       0.93       0.06       0.93
   759     1 303202       0.93       0.06       0.94
   760     1 303602       0.93       0.06       0.94
   761     1 304002       0.93       0.05       0.95
   762     1 304402       0.93       0.05       0.95
   763     1 304802       0.93       0.04       0.95
   764     1 305202       0.93       0.04       0.96
   765     1 305602       0.93       0.04       0.96
   766     1 306002       0.93       0.04       0.96
   767     1 306402       0.93       0.04       0.96
   768     1 306802       0.93       0.04       0.95
   769     1 307202       0.93       0.05       0.95
   770     1 307602       0.93       0.05       0.95
   771     1 308002       0.93       0.05       0.95
   772     1 308402       0.93       0.05       0.94
   773     1 308802       0.93       0.06       0.94
   774     1 309202       0.93       0.06       0.94
   775     1 309602       0.93       0.06       0.93
   776     1 310002       0.93       0.06       0.93
   777     1 310402       0.93       0.06       0.93
   778     1 310802       0.93       0.07       0.93
   779     1 311202       0.93       0.07       0.93
   780     1 311602       0.93       0.07       0.93
   781     1 312002       0.93       0.07       0.92
   782     1 312402       0.93       0.07       0.92
   783     1 312802       0.93       0.07       0.92
   784     1 313202       0.93       0.07       0.92
   785     1 313602       0.93       0.08       0.92
   786     1 314002       0.93       0.08       0.92
   787     1 314402       0.93       0.08       0.91
   788     1 314802       0.93       0.08       0.91
   789     1 315202       0.93       0.09       0.91
   790     1 315602       0.93       0.09       0.91
   791     1 316002       0.93       0.09       0.90
   792     1 316402       0.93       0.09       0.90
   793     1 316802       0.93       0.09       0.90
   794     1 317202       0.93       0.09       0.90
   795     1 317602       0.93       0.09       0.90
   796     1 318002       0.93       0.09       0.90
   797     1 318402       0.93       0.09       0.91
   798     1 318802       0.93       0.09       0.91
   799     1 319202       0.93       0.09       0.91
   800     1 319602       0.93       0.09       0.91

    
 STOP
